%mem=8000MB
%nprocshared=64
# wB97XD/6-31G(d) Opt(NoMicro) NoSymm

 PFOA

0 1
C         -1.19427       -0.28689       -0.70001
O         -2.12901       -0.80692       -1.29553
C          0.25070       -0.75233       -0.76627
C          0.73635       -0.65516       -2.20048
C          2.20276       -1.01577       -2.39173
C          2.63708       -2.44211       -2.07186
C          1.90053       -3.59092       -2.75485
C          2.01828       -3.60421       -4.25875
C          1.31154       -4.82404       -4.84867
F          0.66616       -5.58041       -3.93569
F          0.38828       -4.45294       -5.77192
F          2.18299       -5.63974       -5.49338
F          1.47876       -2.46421       -4.77363
F          3.32938       -3.58377       -4.62970
F          2.39905       -4.76509       -2.26131
F          0.59396       -3.56685       -2.37873
F          3.97368       -2.55737       -2.34454
F          2.55634       -2.61673       -0.71655
F          2.55646       -0.73797       -3.68389
F          2.96319       -0.15314       -1.64403
F         -0.01855       -1.41961       -3.03351
F          0.55574        0.63502       -2.62793
F          1.02542        0.02613        0.05236
F          0.37662       -2.02007       -0.29329
O         -1.38839        0.76798        0.13805
H         -0.56800        1.05463        0.59668

